data_image0
_chemical_formula_structural       C6NC2N2C2N2C2NC16NC2N2C2NC4NC2NC4NC2NC8NC2NC4NC2NC8NC2NC8NC2NC4NC2NC4NC2N2C2NC8NC2NC4NC2NC12NC2NC4NC2NC59H63C3H3
_chemical_formula_sum              "C192 N36 H66"
_cell_length_a       62.4
_cell_length_b       62.4
_cell_length_c       30
_cell_angle_alpha    90
_cell_angle_beta     90
_cell_angle_gamma    120

_space_group_name_H-M_alt    "P 1"
_space_group_IT_number       1

loop_
  _space_group_symop_operation_xyz
  'x, y, z'

loop_
  _atom_site_type_symbol
  _atom_site_label
  _atom_site_symmetry_multiplicity
  _atom_site_fract_x
  _atom_site_fract_y
  _atom_site_fract_z
  _atom_site_occupancy
  C   C1        1.0  0.85555  0.70350  0.00578  1.0000
  C   C2        1.0  0.85555  0.67998  0.00579  1.0000
  C   C3        1.0  0.83276  0.65718  0.00579  1.0000
  C   C4        1.0  0.80923  0.65718  0.00579  1.0000
  C   C5        1.0  0.80923  0.67998  0.00578  1.0000
  C   C6        1.0  0.83276  0.70350  0.00578  1.0000
  N   N1        1.0  0.87742  0.68092  0.00578  1.0000
  C   C7        1.0  0.87648  0.65905  0.00579  1.0000
  C   C8        1.0  0.85368  0.63625  0.00579  1.0000
  N   N2        1.0  0.83181  0.63532  0.00579  1.0000
  N   N3        1.0  0.78830  0.63532  0.00579  1.0000
  C   C9        1.0  0.76737  0.63625  0.00579  1.0000
  C   C10       1.0  0.76737  0.65905  0.00578  1.0000
  N   N4        1.0  0.78830  0.68092  0.00578  1.0000
  N   N5        1.0  0.83182  0.72443  0.00578  1.0000
  C   C11       1.0  0.85368  0.74536  0.00578  1.0000
  C   C12       1.0  0.87648  0.74536  0.00578  1.0000
  N   N6        1.0  0.87742  0.72443  0.00578  1.0000
  C   C13       1.0  0.74387  0.61294  0.00579  1.0000
  C   C14       1.0  0.72116  0.61297  0.00579  1.0000
  C   C15       1.0  0.72116  0.63613  0.00578  1.0000
  C   C16       1.0  0.74387  0.65886  0.00578  1.0000
  C   C17       1.0  0.69848  0.59019  0.00579  1.0000
  C   C18       1.0  0.67484  0.58983  0.00579  1.0000
  C   C19       1.0  0.67484  0.61294  0.00578  1.0000
  C   C20       1.0  0.69848  0.63622  0.00578  1.0000
  C   C21       1.0  0.89979  0.65885  0.00578  1.0000
  C   C22       1.0  0.89977  0.63613  0.00579  1.0000
  C   C23       1.0  0.87660  0.61297  0.00579  1.0000
  C   C24       1.0  0.85388  0.61294  0.00579  1.0000
  C   C25       1.0  0.92254  0.63622  0.00578  1.0000
  C   C26       1.0  0.92290  0.61294  0.00579  1.0000
  C   C27       1.0  0.89979  0.58983  0.00579  1.0000
  C   C28       1.0  0.87651  0.59019  0.00579  1.0000
  N   N7        1.0  0.65415  0.56804  0.00579  1.0000
  C   C29       1.0  0.63299  0.56886  0.00579  1.0000
  C   C30       1.0  0.63299  0.59206  0.00578  1.0000
  N   N8        1.0  0.65415  0.61404  0.00578  1.0000
  N   N9        1.0  0.94470  0.61404  0.00578  1.0000
  C   C31       1.0  0.94387  0.59206  0.00579  1.0000
  C   C32       1.0  0.92067  0.56886  0.00579  1.0000
  N   N10       1.0  0.89869  0.56804  0.00579  1.0000
  C   C33       1.0  0.61017  0.54662  0.00579  1.0000
  C   C34       1.0  0.58734  0.54604  0.00578  1.0000
  C   C35       1.0  0.58734  0.56924  0.00578  1.0000
  C   C36       1.0  0.61017  0.59148  0.00578  1.0000
  N   N11       1.0  0.56619  0.52406  0.00579  1.0000
  C   C37       1.0  0.54550  0.52516  0.00578  1.0000
  C   C38       1.0  0.54550  0.54827  0.00578  1.0000
  N   N12       1.0  0.56619  0.57006  0.00578  1.0000
  C   C39       1.0  0.96611  0.59148  0.00578  1.0000
  C   C40       1.0  0.96670  0.56924  0.00578  1.0000
  C   C41       1.0  0.94350  0.54604  0.00579  1.0000
  C   C42       1.0  0.92126  0.54662  0.00579  1.0000
  N   N13       1.0  0.98867  0.57006  0.00578  1.0000
  C   C43       1.0  0.98757  0.54827  0.00578  1.0000
  C   C44       1.0  0.96447  0.52516  0.00579  1.0000
  N   N14       1.0  0.94267  0.52406  0.00579  1.0000
  C   C45       1.0  0.52186  0.50189  0.00579  1.0000
  C   C46       1.0  0.49918  0.50195  0.00578  1.0000
  C   C47       1.0  0.49918  0.52516  0.00578  1.0000
  C   C48       1.0  0.52186  0.54790  0.00578  1.0000
  C   C49       1.0  0.47650  0.47921  0.00579  1.0000
  C   C50       1.0  0.45286  0.47884  0.00578  1.0000
  C   C51       1.0  0.45286  0.50195  0.00578  1.0000
  C   C52       1.0  0.47650  0.52522  0.00578  1.0000
  N   N15       1.0  0.43216  0.45705  0.00579  1.0000
  C   C53       1.0  0.41101  0.45787  0.00578  1.0000
  C   C54       1.0  0.41101  0.48107  0.00578  1.0000
  N   N16       1.0  0.43216  0.50305  0.00578  1.0000
  C   C55       1.0  0.38819  0.43563  0.00579  1.0000
  C   C56       1.0  0.36536  0.43505  0.00578  1.0000
  C   C57       1.0  0.36536  0.45825  0.00578  1.0000
  C   C58       1.0  0.38819  0.48048  0.00578  1.0000
  N   N17       1.0  0.34421  0.41307  0.00579  1.0000
  C   C59       1.0  0.32352  0.41417  0.00578  1.0000
  C   C60       1.0  0.32352  0.43728  0.00578  1.0000
  N   N18       1.0  0.34421  0.45907  0.00578  1.0000
  C   C61       1.0  0.29987  0.39089  0.00579  1.0000
  C   C62       1.0  0.27719  0.39098  0.00578  1.0000
  C   C63       1.0  0.27719  0.41414  0.00578  1.0000
  C   C64       1.0  0.29987  0.43692  0.00578  1.0000
  C   C65       1.0  0.25449  0.36825  0.00579  1.0000
  C   C66       1.0  0.23098  0.36805  0.00578  1.0000
  C   C67       1.0  0.23098  0.39086  0.00578  1.0000
  C   C68       1.0  0.25449  0.41416  0.00578  1.0000
  N   N19       1.0  0.21005  0.34619  0.00578  1.0000
  C   C69       1.0  0.18913  0.34713  0.00578  1.0000
  C   C70       1.0  0.18913  0.36993  0.00578  1.0000
  N   N20       1.0  0.21005  0.39179  0.00578  1.0000
  C   C71       1.0  0.85388  0.76886  0.00578  1.0000
  C   C72       1.0  0.87661  0.79157  0.00578  1.0000
  C   C73       1.0  0.89977  0.79157  0.00578  1.0000
  C   C74       1.0  0.89979  0.76886  0.00579  1.0000
  C   C75       1.0  0.87651  0.81425  0.00578  1.0000
  C   C76       1.0  0.89979  0.83790  0.00578  1.0000
  C   C77       1.0  0.92291  0.83790  0.00578  1.0000
  C   C78       1.0  0.92254  0.81425  0.00579  1.0000
  N   N21       1.0  0.89869  0.85859  0.00578  1.0000
  C   C79       1.0  0.92067  0.87974  0.00578  1.0000
  C   C80       1.0  0.94387  0.87974  0.00578  1.0000
  N   N22       1.0  0.94470  0.85859  0.00578  1.0000
  C   C81       1.0  0.92126  0.90256  0.00578  1.0000
  C   C82       1.0  0.94350  0.92539  0.00578  1.0000
  C   C83       1.0  0.96670  0.92539  0.00578  1.0000
  C   C84       1.0  0.96611  0.90256  0.00578  1.0000
  N   N23       1.0  0.94267  0.94654  0.00578  1.0000
  C   C85       1.0  0.96447  0.96723  0.00578  1.0000
  C   C86       1.0  0.98757  0.96723  0.00578  1.0000
  N   N24       1.0  0.98867  0.94654  0.00578  1.0000
  C   C87       1.0  0.16560  0.32360  0.00578  1.0000
  C   C88       1.0  0.14281  0.32360  0.00578  1.0000
  C   C89       1.0  0.14281  0.34713  0.00578  1.0000
  C   C90       1.0  0.16560  0.36993  0.00578  1.0000
  N   N25       1.0  0.16654  0.30268  0.00578  1.0000
  C   C91       1.0  0.14468  0.28175  0.00578  1.0000
  C   C92       1.0  0.12187  0.28175  0.00578  1.0000
  N   N26       1.0  0.12094  0.30268  0.00578  1.0000
  N   N27       1.0  0.12094  0.34619  0.00579  1.0000
  C   C93       1.0  0.12187  0.36805  0.00579  1.0000
  C   C94       1.0  0.14468  0.39086  0.00578  1.0000
  N   N28       1.0  0.16654  0.39179  0.00578  1.0000
  C   C95       1.0  0.14448  0.25824  0.00578  1.0000
  C   C96       1.0  0.12175  0.23554  0.00578  1.0000
  C   C97       1.0  0.09859  0.23554  0.00578  1.0000
  C   C98       1.0  0.09857  0.25824  0.00578  1.0000
  C   C99       1.0  0.12185  0.21286  0.00578  1.0000
  C   C100      1.0  0.09856  0.18921  0.00578  1.0000
  C   C101      1.0  0.07545  0.18921  0.00578  1.0000
  C   C102      1.0  0.07581  0.21286  0.00578  1.0000
  N   N29       1.0  0.09966  0.16852  0.00578  1.0000
  C   C103      1.0  0.07769  0.14737  0.00578  1.0000
  C   C104      1.0  0.05449  0.14737  0.00578  1.0000
  N   N30       1.0  0.05366  0.16852  0.00578  1.0000
  C   C105      1.0  0.07710  0.12455  0.00578  1.0000
  C   C106      1.0  0.05486  0.10172  0.00578  1.0000
  C   C107      1.0  0.03166  0.10172  0.00578  1.0000
  C   C108      1.0  0.03225  0.12455  0.00578  1.0000
  N   N31       1.0  0.05569  0.08057  0.00578  1.0000
  C   C109      1.0  0.03389  0.05988  0.00578  1.0000
  C   C110      1.0  0.01079  0.05988  0.00578  1.0000
  N   N32       1.0  0.00968  0.08057  0.00578  1.0000
  C   C111      1.0  0.03352  0.03623  0.00578  1.0000
  C   C112      1.0  0.01078  0.01355  0.00578  1.0000
  C   C113      1.0  0.98758  0.01355  0.00578  1.0000
  C   C114      1.0  0.98751  0.03623  0.00578  1.0000
  C   C115      1.0  0.09857  0.36825  0.00579  1.0000
  C   C116      1.0  0.09859  0.39098  0.00579  1.0000
  C   C117      1.0  0.12175  0.41414  0.00578  1.0000
  C   C118      1.0  0.14448  0.41417  0.00578  1.0000
  C   C119      1.0  0.07582  0.39089  0.00579  1.0000
  C   C120      1.0  0.07545  0.41417  0.00579  1.0000
  C   C121      1.0  0.09856  0.43728  0.00578  1.0000
  C   C122      1.0  0.12185  0.43692  0.00578  1.0000
  N   N33       1.0  0.05366  0.41307  0.00579  1.0000
  C   C123      1.0  0.05449  0.43505  0.00579  1.0000
  C   C124      1.0  0.07769  0.45825  0.00578  1.0000
  N   N34       1.0  0.09966  0.45907  0.00578  1.0000
  C   C125      1.0  0.03225  0.43563  0.00579  1.0000
  C   C126      1.0  0.03166  0.45787  0.00579  1.0000
  C   C127      1.0  0.05486  0.48107  0.00578  1.0000
  C   C128      1.0  0.07710  0.48048  0.00578  1.0000
  N   N35       1.0  0.00968  0.45705  0.00579  1.0000
  C   C129      1.0  0.01079  0.47884  0.00579  1.0000
  C   C130      1.0  0.03389  0.50195  0.00578  1.0000
  N   N36       1.0  0.05569  0.50305  0.00578  1.0000
  C   C131      1.0  0.98751  0.47921  0.00579  1.0000
  C   C132      1.0  0.98757  0.50195  0.00579  1.0000
  C   C133      1.0  0.01078  0.52516  0.00578  1.0000
  C   C134      1.0  0.03352  0.52522  0.00578  1.0000
  C   C135      1.0  0.07590  0.34595  0.00579  1.0000
  C   C136      1.0  0.05363  0.34593  0.00579  1.0000
  C   C137      1.0  0.05361  0.36821  0.00579  1.0000
  C   C138      1.0  0.14452  0.45913  0.00578  1.0000
  C   C139      1.0  0.16680  0.45910  0.00578  1.0000
  C   C140      1.0  0.16678  0.43684  0.00578  1.0000
  C   C141      1.0  0.05361  0.21332  0.00578  1.0000
  C   C142      1.0  0.05363  0.23563  0.00578  1.0000
  C   C143      1.0  0.07589  0.25787  0.00578  1.0000
  C   C144      1.0  0.29941  0.36821  0.00579  1.0000
  C   C145      1.0  0.27710  0.34593  0.00579  1.0000
  C   C146      1.0  0.25486  0.34595  0.00579  1.0000
  C   C147      1.0  0.25486  0.43684  0.00578  1.0000
  C   C148      1.0  0.27710  0.45910  0.00578  1.0000
  C   C149      1.0  0.29941  0.45913  0.00578  1.0000
  C   C150      1.0  0.52144  0.47921  0.00579  1.0000
  C   C151      1.0  0.49918  0.45694  0.00579  1.0000
  C   C152      1.0  0.47692  0.45695  0.00579  1.0000
  C   C153      1.0  0.47692  0.54789  0.00578  1.0000
  C   C154      1.0  0.49918  0.57017  0.00578  1.0000
  C   C155      1.0  0.52144  0.57016  0.00578  1.0000
  C   C156      1.0  0.74349  0.59027  0.00579  1.0000
  C   C157      1.0  0.72126  0.56801  0.00579  1.0000
  C   C158      1.0  0.69895  0.56798  0.00579  1.0000
  C   C159      1.0  0.69895  0.65890  0.00578  1.0000
  C   C160      1.0  0.72126  0.68118  0.00578  1.0000
  C   C161      1.0  0.74349  0.68115  0.00578  1.0000
  C   C162      1.0  0.92246  0.68115  0.00578  1.0000
  C   C163      1.0  0.94472  0.68118  0.00578  1.0000
  C   C164      1.0  0.94475  0.65890  0.00578  1.0000
  C   C165      1.0  0.85384  0.56798  0.00579  1.0000
  C   C166      1.0  0.83156  0.56801  0.00579  1.0000
  C   C167      1.0  0.83158  0.59027  0.00579  1.0000
  C   C168      1.0  0.94475  0.81378  0.00579  1.0000
  C   C169      1.0  0.94472  0.79148  0.00579  1.0000
  C   C170      1.0  0.92246  0.76924  0.00579  1.0000
  C   C171      1.0  0.83158  0.76924  0.00578  1.0000
  C   C172      1.0  0.83156  0.79148  0.00578  1.0000
  C   C173      1.0  0.85384  0.81378  0.00578  1.0000
  C   C174      1.0  0.01085  0.54790  0.00578  1.0000
  C   C175      1.0  0.03352  0.57016  0.00578  1.0000
  C   C176      1.0  0.05579  0.57017  0.00578  1.0000
  C   C177      1.0  0.05578  0.54789  0.00578  1.0000
  C   C178      1.0  0.96484  0.45695  0.00579  1.0000
  C   C179      1.0  0.94256  0.45694  0.00579  1.0000
  C   C180      1.0  0.94258  0.47921  0.00579  1.0000
  C   C181      1.0  0.96483  0.50189  0.00579  1.0000
  C   C182      1.0  0.96483  0.99088  0.00578  1.0000
  C   C183      1.0  0.94258  0.99129  0.00578  1.0000
  C   C184      1.0  0.94256  0.01355  0.00578  1.0000
  C   C185      1.0  0.96484  0.03582  0.00578  1.0000
  C   C186      1.0  0.05578  0.03582  0.00578  1.0000
  C   C187      1.0  0.05580  0.01355  0.00579  1.0000
  C   C188      1.0  0.03352  0.99129  0.00578  1.0000
  C   C189      1.0  0.01085  0.99088  0.00578  1.0000
  H   H1        1.0  0.61017  0.52896  0.00579  1.0000
  H   H2        1.0  0.61017  0.60914  0.00578  1.0000
  H   H3        1.0  0.98377  0.60914  0.00578  1.0000
  H   H4        1.0  0.90359  0.52896  0.00579  1.0000
  H   H5        1.0  0.38819  0.41797  0.00579  1.0000
  H   H6        1.0  0.38819  0.49815  0.00578  1.0000
  H   H7        1.0  0.90359  0.90256  0.00578  1.0000
  H   H8        1.0  0.98377  0.90256  0.00579  1.0000
  H   H9        1.0  0.09476  0.12455  0.00578  1.0000
  H   H10       1.0  0.01458  0.12455  0.00578  1.0000
  H   H11       1.0  0.01458  0.41797  0.00579  1.0000
  H   H12       1.0  0.09476  0.49815  0.00578  1.0000
  H   H13       1.0  0.07593  0.32831  0.00579  1.0000
  H   H14       1.0  0.03593  0.36817  0.00579  1.0000
  H   H15       1.0  0.14457  0.47681  0.00578  1.0000
  H   H16       1.0  0.18442  0.43680  0.00578  1.0000
  H   H17       1.0  0.03593  0.19569  0.00578  1.0000
  H   H18       1.0  0.07593  0.27554  0.00578  1.0000
  H   H19       1.0  0.31704  0.36817  0.00579  1.0000
  H   H20       1.0  0.23719  0.32831  0.00579  1.0000
  H   H21       1.0  0.23719  0.43680  0.00578  1.0000
  H   H22       1.0  0.31704  0.47681  0.00578  1.0000
  H   H23       1.0  0.53910  0.47922  0.00579  1.0000
  H   H24       1.0  0.45926  0.43930  0.00579  1.0000
  H   H25       1.0  0.45926  0.54788  0.00578  1.0000
  H   H26       1.0  0.53910  0.58781  0.00578  1.0000
  H   H27       1.0  0.76117  0.59030  0.00579  1.0000
  H   H28       1.0  0.68131  0.55030  0.00579  1.0000
  H   H29       1.0  0.68131  0.65894  0.00578  1.0000
  H   H30       1.0  0.76117  0.69879  0.00578  1.0000
  H   H31       1.0  0.92243  0.69879  0.00578  1.0000
  H   H32       1.0  0.96243  0.65894  0.00578  1.0000
  H   H33       1.0  0.85379  0.55030  0.00579  1.0000
  H   H34       1.0  0.81394  0.59030  0.00579  1.0000
  H   H35       1.0  0.96243  0.83142  0.00579  1.0000
  H   H36       1.0  0.92243  0.75156  0.00579  1.0000
  H   H37       1.0  0.81394  0.75156  0.00578  1.0000
  H   H38       1.0  0.85379  0.83142  0.00578  1.0000
  H   H39       1.0  0.03351  0.58781  0.00578  1.0000
  H   H40       1.0  0.07343  0.54789  0.00578  1.0000
  H   H41       1.0  0.96485  0.43930  0.00579  1.0000
  H   H42       1.0  0.92492  0.47922  0.00579  1.0000
  H   H43       1.0  0.92492  0.97363  0.00578  1.0000
  H   H44       1.0  0.96485  0.05348  0.00578  1.0000
  H   H45       1.0  0.07343  0.05348  0.00579  1.0000
  H   H46       1.0  0.03351  0.97363  0.00579  1.0000
  H   H47       1.0  0.49918  0.58783  0.00578  1.0000
  H   H48       1.0  0.49918  0.43928  0.00579  1.0000
  H   H49       1.0  0.72126  0.55036  0.00579  1.0000
  H   H50       1.0  0.81390  0.55036  0.00579  1.0000
  H   H51       1.0  0.07345  0.01355  0.00579  1.0000
  H   H52       1.0  0.92491  0.01355  0.00578  1.0000
  H   H53       1.0  0.03598  0.23564  0.00578  1.0000
  H   H54       1.0  0.03598  0.32827  0.00579  1.0000
  H   H55       1.0  0.92491  0.43928  0.00579  1.0000
  H   H56       1.0  0.07345  0.58783  0.00578  1.0000
  H   H57       1.0  0.27709  0.47675  0.00578  1.0000
  H   H58       1.0  0.18446  0.47675  0.00578  1.0000
  H   H59       1.0  0.81390  0.79147  0.00578  1.0000
  H   H60       1.0  0.72126  0.69884  0.00578  1.0000
  H   H61       1.0  0.27709  0.32827  0.00579  1.0000
  H   H62       1.0  0.96238  0.69884  0.00578  1.0000
  H   H63       1.0  0.96238  0.79147  0.00579  1.0000
  C   C190      1.0  0.16678  0.25787  0.00578  1.0000
  C   C191      1.0  0.14452  0.21332  0.00578  1.0000
  C   C192      1.0  0.16680  0.23563  0.00578  1.0000
  H   H64       1.0  0.18442  0.27554  0.00578  1.0000
  H   H65       1.0  0.18446  0.23564  0.00578  1.0000
  H   H66       1.0  0.14457  0.19569  0.00578  1.0000
