data_image0
_chemical_formula_structural       C4N2C4N6C12H6
_chemical_formula_sum              "C20 N8 H6"
_cell_length_a       10.6742
_cell_length_b       10.6742
_cell_length_c       30
_cell_angle_alpha    90
_cell_angle_beta     90
_cell_angle_gamma    90

_space_group_name_H-M_alt    "P 1"
_space_group_IT_number       1

loop_
  _space_group_symop_operation_xyz
  'x, y, z'

loop_
  _atom_site_type_symbol
  _atom_site_label
  _atom_site_symmetry_multiplicity
  _atom_site_fract_x
  _atom_site_fract_y
  _atom_site_fract_z
  _atom_site_occupancy
  C   C1        1.0  0.70136  0.33701  0.99669  1.0000
  C   C2        1.0  0.18437  0.54839  0.99669  1.0000
  C   C3        1.0  0.18437  0.33701  0.99669  1.0000
  C   C4        1.0  0.70136  0.54839  0.99669  1.0000
  N   N1        1.0  0.44286  0.26140  0.99669  1.0000
  N   N2        1.0  0.44286  0.62400  0.99669  1.0000
  C   C5        1.0  0.54473  0.18658  0.99669  1.0000
  C   C6        1.0  0.34100  0.69882  0.99669  1.0000
  C   C7        1.0  0.34100  0.18658  0.99669  1.0000
  C   C8        1.0  0.54473  0.69882  0.99669  1.0000
  N   N3        1.0  0.66615  0.21759  0.99669  1.0000
  N   N4        1.0  0.21958  0.66781  0.99669  1.0000
  N   N5        1.0  0.21958  0.21759  0.99669  1.0000
  N   N6        1.0  0.66615  0.66781  0.99669  1.0000
  N   N7        1.0  0.63145  0.44270  0.99669  1.0000
  N   N8        1.0  0.25428  0.44270  0.99669  1.0000
  C   C9        1.0  0.50902  0.05394  0.99669  1.0000
  C   C10       1.0  0.37671  0.05394  0.99669  1.0000
  C   C11       1.0  0.83132  0.37577  0.99669  1.0000
  C   C12       1.0  0.83132  0.50963  0.99669  1.0000
  C   C13       1.0  0.94287  0.57781  0.99669  1.0000
  C   C14       1.0  0.94286  0.30760  0.99669  1.0000
  C   C15       1.0  0.05441  0.50963  0.99669  1.0000
  C   C16       1.0  0.05441  0.37577  0.99669  1.0000
  C   C17       1.0  0.37671  0.83146  0.99669  1.0000
  C   C18       1.0  0.50902  0.83146  0.99669  1.0000
  C   C19       1.0  0.57767  0.94270  0.99669  1.0000
  C   C20       1.0  0.30806  0.94270  0.99669  1.0000
  H   H1        1.0  0.53328  0.44270  0.99669  1.0000
  H   H2        1.0  0.35245  0.44270  0.99669  1.0000
  H   H3        1.0  0.94287  0.68099  0.99669  1.0000
  H   H4        1.0  0.94286  0.20441  0.99669  1.0000
  H   H5        1.0  0.68092  0.94270  0.99669  1.0000
  H   H6        1.0  0.20481  0.94270  0.99669  1.0000
